[General]
network = agriot_6_0.simulations.Network
record-eventlog=true
sim-time-limit = 100s


**.Client.numTcpApps = 1
**.Client.tcpApp[0].typename="TCPBasicClientApp"
**.Client.tcpApp[0].connectAddress="Server"
**.Client.tcpApp[0].connectPort=80
**.Client.tcpApp[0].thinkTime=0s
**.Client.tcpApp[0].idleInterval=0s

**.Server.numTcpApps=1
**.Server.tcpApp[0].typename="TCPEchoApp"
**.Server.tcpApp[0].localPort=80

**.ppp[*].queueType="DropTailQueue"
**.ppp[*].queue.frameCapacity=10