[General]
network = Network

sim-time-limit=5000s
**.vector-recording=false

**.etherHost.cli.destAddress=""
**.startTime=1s

**.etherHost2.cli.destAddress="etherHost"
**.etherHost2.cli.sendInterval=0.1s
**.cli.reqLength=100B
